13
	Energy: -88.8368681
N -0.12840 1.45162 0.72684
C 0.76454 2.37431 0.91854
C 2.22402 2.13662 0.81422
C 2.58342 0.89136 0.50704
N 1.62992 -0.06016 0.30979
C 0.27990 0.17973 0.41379
O -0.50373 -0.74497 0.21738
N 0.30484 3.62566 1.22429
H -0.69288 3.71300 1.05286
H 0.83799 4.41009 0.87146
H 1.87458 -1.01417 0.08012
H 3.61831 0.58401 0.40699
H 2.92361 2.93851 0.99583
